Circuit: *** SPICE deck for cell Inverter_Size_4_sim{sch} from library DD2_Project

Warning: toxe, toxp and dtox all given and toxe != toxp + dtox; dtox ignored.
Direct Newton iteration for .op point succeeded.

tpdr=5.56026e-011 FROM 5.7e-009 TO 5.7556e-009
tpdf=9.08197e-011 FROM 3e-010 TO 3.9082e-010


Date: Tue Apr 12 21:53:20 2022
Total elapsed time: 0.156 seconds.

tnom = 27
temp = 27
method = modified trap
totiter = 4121
traniter = 4114
tranpoints = 1799
accept = 1579
rejected = 220
matrix size = 13
fillins = 0
solver = Normal
Matrix Compiler1: 996 bytes object code size  0.2/0.1/[0.1]
Matrix Compiler2: 1.30 KB object code size  0.1/0.2/[0.1]

