Circuit: *** SPICE deck for cell F6_Size_2_sim{sch} from library DD2_Project

Limiting rise time of source vin to 5e-010
Limiting fall time of source vin to 5e-010
Warning: toxe, toxp and dtox all given and toxe != toxp + dtox; dtox ignored.
Direct Newton iteration for .op point succeeded.

tpdr=7.94033e-011 FROM 5.85e-009 TO 5.9294e-009
tpdf=1.81392e-010 FROM 3.5e-010 TO 5.31392e-010


Date: Tue Apr 12 12:40:43 2022
Total elapsed time: 0.177 seconds.

tnom = 27
temp = 27
method = modified trap
totiter = 4304
traniter = 4280
tranpoints = 1664
accept = 1487
rejected = 177
matrix size = 62
fillins = 0
solver = Normal
Matrix Compiler1: 7.58 KB object code size  1.6/0.8/[0.4]
Matrix Compiler2: 7.88 KB object code size  0.8/0.7/[0.4]

