Circuit: *** SPICE deck for cell NOR_Size_2_sim{sch} from library DD2_Project

Warning: toxe, toxp and dtox all given and toxe != toxp + dtox; dtox ignored.
Direct Newton iteration for .op point succeeded.

tpdr=7.87351e-011 FROM 5.7e-009 TO 5.77874e-009
tpdf=6.2879e-010 FROM 3e-010 TO 9.2879e-010


Date: Tue Apr 12 11:06:27 2022
Total elapsed time: 0.116 seconds.

tnom = 27
temp = 27
method = modified trap
totiter = 4420
traniter = 4408
tranpoints = 1649
accept = 1450
rejected = 199
matrix size = 35
fillins = 0
solver = Normal
Matrix Compiler1: 3.39 KB object code size  0.8/0.4/[0.2]
Matrix Compiler2: 3.93 KB object code size  0.4/0.5/[0.2]

