Circuit: *** SPICE deck for cell NAND_Size_2_sim{sch} from library DD2_Project

Warning: toxe, toxp and dtox all given and toxe != toxp + dtox; dtox ignored.
Direct Newton iteration for .op point succeeded.

tpdr=1.05047e-010 FROM 5.7e-009 TO 5.80505e-009
tpdf=1.272e-010 FROM 3e-010 TO 4.272e-010


Date: Tue Apr 12 02:41:37 2022
Total elapsed time: 0.140 seconds.

tnom = 27
temp = 27
method = modified trap
totiter = 3990
traniter = 3982
tranpoints = 1646
accept = 1425
rejected = 221
matrix size = 35
fillins = 0
solver = Normal
Matrix Compiler1: 3.51 KB object code size  0.9/0.4/[0.2]
Matrix Compiler2: 4.04 KB object code size  0.4/0.5/[0.2]

