Circuit: *** SPICE deck for cell Inverter_Size_2_sim{sch} from library DD2_Project

Warning: toxe, toxp and dtox all given and toxe != toxp + dtox; dtox ignored.
Direct Newton iteration for .op point succeeded.

tpdr=1.29049e-010 FROM 5.7e-009 TO 5.82905e-009
tpdf=1.71143e-010 FROM 3e-010 TO 4.71143e-010


Date: Tue Apr 12 21:25:51 2022
Total elapsed time: 0.136 seconds.

tnom = 27
temp = 27
method = modified trap
totiter = 4127
traniter = 4120
tranpoints = 1707
accept = 1491
rejected = 216
matrix size = 13
fillins = 0
solver = Normal
Matrix Compiler1: 996 bytes object code size  0.2/0.1/[0.1]
Matrix Compiler2: 1.30 KB object code size  0.1/0.2/[0.1]

