Circuit: *** SPICE deck for cell NOR_Size_1_sim{sch} from library DD2_Project

Limiting rise time of source vin to 5e-010
Limiting fall time of source vin to 5e-010
WARNING: Node 1.8 is floating.

Warning: toxe, toxp and dtox all given and toxe != toxp + dtox; dtox ignored.
Direct Newton iteration for .op point succeeded.

tpdr=1.601e-011 FROM 5.85e-009 TO 5.86601e-009
tpdf=1.87406e-010 FROM 3.5e-010 TO 5.37406e-010


Date: Tue Apr 12 05:56:02 2022
Total elapsed time: 0.182 seconds.

tnom = 27
temp = 27
method = modified trap
totiter = 3768
traniter = 3747
tranpoints = 1598
accept = 1441
rejected = 157
matrix size = 36
fillins = 24
solver = Normal
Matrix Compiler1: 5.15 KB object code size  1.0/0.6/[0.3]
Matrix Compiler2: 4.42 KB object code size  0.4/0.5/[0.3]

