Circuit: *** SPICE deck for cell F7_Size_1_sim{sch} from library DD2_Project

Warning: toxe, toxp and dtox all given and toxe != toxp + dtox; dtox ignored.
Direct Newton iteration for .op point succeeded.

tpdr=2.82529e-010 FROM 5.7e-009 TO 5.98253e-009
tpdf=8.59098e-010 FROM 3e-010 TO 1.1591e-009


Date: Tue Apr 12 19:15:35 2022
Total elapsed time: 0.197 seconds.

tnom = 27
temp = 27
method = modified trap
totiter = 4173
traniter = 4151
tranpoints = 1703
accept = 1482
rejected = 221
matrix size = 64
fillins = 0
solver = Normal
Matrix Compiler1: 7.92 KB object code size  1.8/0.9/[0.4]
Matrix Compiler2: 8.03 KB object code size  0.8/0.6/[0.4]

