Circuit: *** SPICE deck for cell F7_Size_2_sim{sch} from library DD2_Project

Warning: toxe, toxp and dtox all given and toxe != toxp + dtox; dtox ignored.
Direct Newton iteration for .op point succeeded.

tpdr=3.07857e-010 FROM 5.7e-009 TO 6.00786e-009
tpdf=8.96987e-010 FROM 3e-010 TO 1.19699e-009


Date: Tue Apr 12 19:26:50 2022
Total elapsed time: 0.196 seconds.

tnom = 27
temp = 27
method = modified trap
totiter = 4346
traniter = 4325
tranpoints = 1718
accept = 1518
rejected = 200
matrix size = 64
fillins = 0
solver = Normal
Matrix Compiler1: 7.92 KB object code size  1.8/0.8/[0.5]
Matrix Compiler2: 8.03 KB object code size  0.8/0.8/[0.4]

